{"data":{"layout-restorer:data":{"main":{"dock":{"type":"tab-area","currentIndex":5,"widgets":["notebook:modeling/GMDIS_V2/GMDSI_notebooks/tutorials/part2_06_ies/freyberg_ies_2_localization.ipynb","notebook:modeling/GMDIS_V2/GMDSI_notebooks/tutorials/part2_06_ies/freyberg_ies_1_basics.ipynb","notebook:modeling/GMDIS_V2/GMDSI_notebooks/tutorials/part1_08_pilotpoints_run/freyberg_pilotpoints_2_run.ipynb","notebook:modeling/GMDIS_V2/GMDSI_notebooks/tutorials/part0_intro_to_pyemu/intro_to_pyemu.ipynb","notebook:modeling/GMDIS_V2/GMDSI_notebooks/tutorials/part1_06_glm_response_surface/freyberg_glm_response_surface_ies.ipynb","notebook:modeling/GMDIS_V2/GMDSI_notebooks/tutorials/part1_06_glm_response_surface/freyberg_glm_response_surface.ipynb","editor:modeling/GMDIS_V2/GMDSI_notebooks/tutorials/part1_06_glm_response_surface/response_surface.py","notebook:modeling/GMDIS_V2/GMDSI_notebooks/tutorials/part2_02_obs_and_weights/freyberg_obs_and_weights.ipynb","notebook:modeling/GMDIS_V2/GMDSI_notebooks/tutorials/part2_01_pstfrom_pest_setup/freyberg_pstfrom_pest_setup.ipynb","notebook:modeling/GMDSI_notebooks/tutorials/part2_02_obs_and_weights/freyberg_obs_and_weights.ipynb","notebook:modeling/pyemu/examples/MODFLOW_to_PEST_even_more_boss.ipynb","notebook:modeling/pyemu/examples/modflow_to_pest_like_a_boss.ipynb"]},"current":"notebook:modeling/GMDIS_V2/GMDSI_notebooks/tutorials/part1_06_glm_response_surface/freyberg_glm_response_surface.ipynb"},"down":{"size":0,"widgets":[]},"left":{"collapsed":false,"visible":true,"current":"filebrowser","widgets":["filebrowser","running-sessions","@jupyterlab/toc:plugin","extensionmanager.main-view"],"widgetStates":{"jp-running-sessions":{"sizes":[0,0.07032348804500703,0,0.929676511954993],"expansionStates":[false,false,false,false]},"extensionmanager.main-view":{"sizes":[0.3333333333333333,0.3333333333333333,0.3333333333333333],"expansionStates":[false,false,false]}}},"right":{"collapsed":true,"visible":true,"widgets":["jp-property-inspector","debugger-sidebar"],"widgetStates":{"jp-debugger-sidebar":{"sizes":[0.2,0.2,0.2,0.2,0.2],"expansionStates":[false,false,false,false,false]}}},"relativeSizes":[0.28116567728008635,0.7188343227199137,0],"top":{"simpleVisibility":true}},"ipp-cluster-launcher":{"cluster":"default:"},"file-browser-filebrowser:cwd":{"path":"modeling/GMDIS_V2/GMDSI_notebooks/tutorials/part1_06_glm_response_surface"},"notebook:modeling/GMDSI_notebooks/tutorials/part2_02_obs_and_weights/freyberg_obs_and_weights.ipynb":{"data":{"path":"modeling/GMDSI_notebooks/tutorials/part2_02_obs_and_weights/freyberg_obs_and_weights.ipynb","factory":"Notebook"}},"notebook:modeling/pyemu/examples/MODFLOW_to_PEST_even_more_boss.ipynb":{"data":{"path":"modeling/pyemu/examples/MODFLOW_to_PEST_even_more_boss.ipynb","factory":"Notebook"}},"notebook:modeling/pyemu/examples/modflow_to_pest_like_a_boss.ipynb":{"data":{"path":"modeling/pyemu/examples/modflow_to_pest_like_a_boss.ipynb","factory":"Notebook"}},"notebook:modeling/GMDIS_V2/GMDSI_notebooks/tutorials/part2_06_ies/freyberg_ies_2_localization.ipynb":{"data":{"path":"modeling/GMDIS_V2/GMDSI_notebooks/tutorials/part2_06_ies/freyberg_ies_2_localization.ipynb","factory":"Notebook"}},"notebook:modeling/GMDIS_V2/GMDSI_notebooks/tutorials/part2_06_ies/freyberg_ies_1_basics.ipynb":{"data":{"path":"modeling/GMDIS_V2/GMDSI_notebooks/tutorials/part2_06_ies/freyberg_ies_1_basics.ipynb","factory":"Notebook"}},"notebook:modeling/GMDIS_V2/GMDSI_notebooks/tutorials/part2_02_obs_and_weights/freyberg_obs_and_weights.ipynb":{"data":{"path":"modeling/GMDIS_V2/GMDSI_notebooks/tutorials/part2_02_obs_and_weights/freyberg_obs_and_weights.ipynb","factory":"Notebook"}},"notebook:modeling/GMDIS_V2/GMDSI_notebooks/tutorials/part2_01_pstfrom_pest_setup/freyberg_pstfrom_pest_setup.ipynb":{"data":{"path":"modeling/GMDIS_V2/GMDSI_notebooks/tutorials/part2_01_pstfrom_pest_setup/freyberg_pstfrom_pest_setup.ipynb","factory":"Notebook"}},"notebook:modeling/GMDIS_V2/GMDSI_notebooks/tutorials/part1_08_pilotpoints_run/freyberg_pilotpoints_2_run.ipynb":{"data":{"path":"modeling/GMDIS_V2/GMDSI_notebooks/tutorials/part1_08_pilotpoints_run/freyberg_pilotpoints_2_run.ipynb","factory":"Notebook"}},"notebook:modeling/GMDIS_V2/GMDSI_notebooks/tutorials/part0_intro_to_pyemu/intro_to_pyemu.ipynb":{"data":{"path":"modeling/GMDIS_V2/GMDSI_notebooks/tutorials/part0_intro_to_pyemu/intro_to_pyemu.ipynb","factory":"Notebook"}},"notebook:modeling/GMDIS_V2/GMDSI_notebooks/tutorials/part1_06_glm_response_surface/freyberg_glm_response_surface_ies.ipynb":{"data":{"path":"modeling/GMDIS_V2/GMDSI_notebooks/tutorials/part1_06_glm_response_surface/freyberg_glm_response_surface_ies.ipynb","factory":"Notebook"}},"editor:modeling/GMDIS_V2/GMDSI_notebooks/tutorials/part1_06_glm_response_surface/response_surface.py":{"data":{"path":"modeling/GMDIS_V2/GMDSI_notebooks/tutorials/part1_06_glm_response_surface/response_surface.py","factory":"Editor"}},"notebook:modeling/GMDIS_V2/GMDSI_notebooks/tutorials/part1_06_glm_response_surface/freyberg_glm_response_surface.ipynb":{"data":{"path":"modeling/GMDIS_V2/GMDSI_notebooks/tutorials/part1_06_glm_response_surface/freyberg_glm_response_surface.ipynb","factory":"Notebook"}},"workspace-ui:lastSave":"modeling/GMDIS_V2/GMDSI_notebooks/tutorials/part1_06_glm_response_surface/new-workspace.jupyterlab-workspace"},"metadata":{"id":"new-workspace","last_modified":"2024-06-24T15:00:15.361719+00:00","created":"2022-05-26T00:21:45.112390+00:00"}}